SOLVER= EULER
MATH_PROBLEM= DIRECT
SYSTEM_MEASUREMENTS= SI
RESTART_SOL= NO

FLUID_MODEL= STANDARD_AIR
GAMMA_VALUE= 1.4
GAS_CONSTANT= 287.058

INIT_OPTION= TD_CONDITIONS
FREESTREAM_PRESSURE= 101325.0
FREESTREAM_TEMPERATURE= 295.0
MACH_NUMBER= 0.5
AOA= 0.0

MARKER_EULER= ( top, bottom )
INLET_TYPE= TOTAL_CONDITIONS
MARKER_INLET= ( inlet, 302.557, 120193.0, 1.0, 0.0, 0.0 )
MARKER_OUTLET= ( outlet, 101325.0 )

NUM_METHOD_GRAD= GREEN_GAUSS
CONV_NUM_METHOD_FLOW= ROE
MUSCL_FLOW= YES
SLOPE_LIMITER_FLOW= VENKATAKRISHNAN
VENKAT_LIMITER_COEFF= 0.05
TIME_DISCRE_FLOW= EULER_IMPLICIT

CFL_NUMBER= 25.0
CFL_ADAPT= YES
CFL_ADAPT_PARAM= ( 0.5, 1.5, 1.0, 100.0 )
LINEAR_SOLVER= FGMRES
LINEAR_SOLVER_PREC= ILU
LINEAR_SOLVER_ERROR= 1E-6
LINEAR_SOLVER_ITER= 10

ITER= 8000
CONV_FIELD= RMS_DENSITY
CONV_RESIDUAL_MINVAL= -11
CONV_STARTITER= 10

MESH_FORMAT= SU2
MESH_FILENAME= mesh/bump2d.su2
OUTPUT_FILES= ( RESTART, PARAVIEW )
VOLUME_OUTPUT= ( COORDINATES, PRIMITIVE )
OUTPUT_WRT_FREQ= 8000
SCREEN_OUTPUT= ( INNER_ITER, RMS_DENSITY, RMS_ENERGY )
